64

Si    2.31577686961    0.0    0.0
Si    10.2492    0.0    0.0
Si    1.46517    2.92683    0.0
Si    7.32237    2.92683    0.0
Si    4.392    5.85366    0.0
Si    10.2492    5.85366    0.0
Si    1.46517    8.78049    0.0
Si    7.32237    8.78049    0.0
Si    0.0    1.46517    1.4617
Si    5.8572    1.46517    1.4617
Si    2.92683    4.392    1.4617
Si    8.78403    4.392    1.4617
Si    0.0    7.31883    1.4617
Si    5.8572    7.31883    1.4617
Si    2.92683    10.24566    1.4617
Si    8.78403    10.24566    1.4617
Si    1.46517    0.0    2.9269
Si    7.32237    0.0    2.9269
Si    4.392    2.92683    2.9269
Si    10.2492    2.92683    2.9269
Si    1.46517    5.85366    2.9269
Si    7.32237    5.85366    2.9269
Si    4.392    8.78049    2.9269
Si    10.2492    8.78049    2.9269
Si    2.93034    1.46517    4.392
Si    8.78754    1.46517    4.392
Si    0.00351    4.392    4.392
Si    5.86071    4.392    4.392
Si    2.93034    7.31883    4.392
Si    8.78754    7.31883    4.392
Si    0.00351    10.24566    4.392
Si    5.86071    10.24566    4.392
Si    4.392    0.0    5.8572
Si    10.2492    0.0    5.8572
Si    1.46517    2.92683    5.8572
Si    7.32237    2.92683    5.8572
Si    4.392    5.85366    5.8572
Si    10.2492    5.85366    5.8572
Si    1.46517    8.78049    5.8572
Si    7.32237    8.78049    5.8572
Si    0.0    1.46517    7.3189
Si    5.8572    1.46517    7.3189
Si    2.92683    4.392    7.3189
Si    8.78403    4.392    7.3189
Si    0.0    7.31883    7.3189
Si    5.8572    7.31883    7.3189
Si    2.92683    10.24566    7.3189
Si    8.78403    10.24566    7.3189
Si    1.46517    0.0    8.7841
Si    7.32237    0.0    8.7841
Si    4.392    2.92683    8.7841
Si    10.2492    2.92683    8.7841
Si    1.46517    5.85366    8.7841
Si    7.32237    5.85366    8.7841
Si    4.392    8.78049    8.7841
Si    10.2492    8.78049    8.7841
Si    2.93034    1.46517    10.2492
Si    8.78754    1.46517    10.2492
Si    0.00351    4.392    10.2492
Si    5.86071    4.392    10.2492
Si    2.93034    7.31883    10.2492
Si    8.78754    7.31883    10.2492
Si    0.00351    10.24566    10.2492
Si    5.86071    10.24566    10.2492